Version 4
SHEET 1 880 680
WIRE 80 -128 -160 -128
WIRE 208 -128 80 -128
WIRE 640 -128 208 -128
WIRE 208 -64 208 -128
WIRE 208 64 208 16
WIRE 448 64 208 64
WIRE 640 64 640 -128
WIRE 640 64 528 64
WIRE 208 112 208 64
WIRE -160 160 -160 -128
WIRE 0 160 -160 160
WIRE 128 160 80 160
WIRE 144 160 128 160
WIRE -160 176 -160 160
WIRE 208 304 208 208
WIRE -160 320 -160 256
FLAG 208 304 0
FLAG -160 320 0
FLAG 208 64 vce
FLAG 128 160 b
FLAG 80 -128 vcc
SYMBOL npn 144 112 R0
SYMATTR InstName Q1
SYMATTR Value 2N2222
SYMBOL res 96 144 R90
WINDOW 0 0 56 VBottom 2
WINDOW 3 32 56 VTop 2
SYMATTR InstName Rb
SYMATTR Value 10k
SYMBOL res 192 -80 R0
SYMATTR InstName Rc
SYMATTR Value {rc}
SYMBOL voltage -160 160 R0
WINDOW 123 0 0 Left 0
WINDOW 39 24 124 Left 2
SYMATTR InstName V1
SYMATTR Value 5
SYMATTR SpiceLine Rser=0.001
SYMBOL ind 432 80 R270
WINDOW 0 32 56 VTop 2
WINDOW 3 5 56 VBottom 2
SYMATTR InstName L1
SYMATTR Value 200m
SYMATTR SpiceLine Rser=165
TEXT -472 -136 Left 2 !.inc bd135.lib
TEXT -472 -88 Left 2 !.op
TEXT -472 -40 Left 2 !.step param rc 1k 10k 50
