Version 4
SHEET 1 880 680
WIRE 160 -64 -160 -64
WIRE 400 -64 160 -64
WIRE 528 -64 400 -64
WIRE 400 0 400 -64
WIRE -160 112 -160 -64
WIRE 352 112 304 112
WIRE 304 128 304 112
WIRE 304 128 272 128
WIRE 352 128 352 112
WIRE 400 128 400 80
WIRE 528 128 528 -64
WIRE 112 144 32 144
WIRE 400 160 400 128
WIRE 400 160 272 160
WIRE 432 160 400 160
WIRE -160 240 -160 192
WIRE 528 256 528 192
WIRE 672 256 528 256
WIRE 768 256 672 256
WIRE 528 288 528 256
WIRE 768 320 768 256
WIRE 32 384 32 144
WIRE 288 384 32 384
WIRE 528 384 528 368
WIRE 528 384 288 384
WIRE 528 400 528 384
WIRE 768 432 768 400
WIRE 528 528 528 480
FLAG -160 240 0
FLAG 528 528 0
FLAG 352 128 0
FLAG 288 384 ref
FLAG 160 -64 Vi
FLAG 768 432 0
FLAG 400 128 cat
FLAG 672 256 vo
SYMBOL AutoGenerated\\TL431 192 144 R0
SYMATTR InstName U1
SYMBOL AutoGenerated\\irf8010pbf 480 160 R0
SYMATTR InstName U2
SYMBOL voltage -160 96 R0
WINDOW 123 0 0 Left 0
WINDOW 39 24 124 Left 2
SYMATTR InstName V1
SYMATTR Value 13
SYMATTR SpiceLine Rser=.1
SYMBOL res 512 272 R0
SYMATTR InstName R1
SYMATTR Value 10k
SYMBOL res 512 384 R0
SYMATTR InstName R2
SYMATTR Value 10k
SYMBOL res 384 -16 R0
SYMATTR InstName R3
SYMATTR Value 1k
SYMBOL res 752 304 R0
SYMATTR InstName R4
SYMATTR Value 1k
TEXT -186 344 Left 2 !.dc V1 3 15 0.5
